
This summary file was generated by TurbSim (from OpenFAST-v3.5.3-dirty) on 26-Oct-2024 at 14:57:21.


Runtime Options:

   4433456  Random seed #1
    RANLUX  Type of random number generator
         F  Output binary HH turbulence parameters?
         F  Output formatted turbulence parameters?
         F  Output AeroDyn HH files?
         T  Output AeroDyn FF files?
         F  Output BLADED FF files?
         F  Output tower data?
         F  Output HAWC FF files?
         F  Output formatted FF files?
         F  Output coherent turbulence time step file?
 0 -  NONE  IEC turbulence models scaled to exact specified standard deviation


Turbine/Model Specifications:

        51  Vertical grid-point matrix dimension
        51  Horizontal grid-point matrix dimension
     0.050  Time step [seconds]
   600.000  Analysis time [seconds]
   600.000  Usable output time [seconds]
    90.000  Hub height [m]
   150.000  Grid height [m]
   150.000  Grid width [m]
     0.000  Vertical flow angle [degrees]
     0.000  Horizontal flow angle [degrees]


Meteorological Boundary Conditions:

    IECVKM  IEC von Karman spectral model
         1  IEC standard: IEC 61400-1 Ed. 2: 1999
         A  IEC turbulence characteristic
       NTM  IEC Normal Turbulence Model
       N/A  IEC Extreme Turbulence Model (ETM) "c" parameter [m/s]
       PL   Wind profile type
    90.000  Reference height [m]
    17.000  Reference wind speed [m/s]
       N/A  Jet height [m]
     0.200  Power law exponent
     0.030  Surface roughness length [m]


Non-IEC Meteorological Boundary Conditions:

       N/A  Site latitude [degrees]
       N/A  Gradient Richardson number
       N/A  Friction or shear velocity [m/s]
       N/A  Mixing layer depth [m]
       N/A  Mean hub u'w' Reynolds stress
       N/A  Mean hub u'v' Reynolds stress
       N/A  Mean hub v'w' Reynolds stress


Spatial Coherence Models:

       IEC  u-component coherence model
      NONE  v-component coherence model
      NONE  w-component coherence model
(    8.800, 0.163E-02)  u-component coherence parameters
                   N/A  v-component coherence parameters
                   N/A  w-component coherence parameters
       N/A  Coherence exponent


You have requested that the following file(s) be generated:

   TurbSim.bts (AeroDyn/TurbSim full-field wind file)


Turbulence Simulation Scaling Parameter Summary:

   Turbulence model used                            =  IEC von Karman
   Turbulence characteristic                        =  A
   IEC turbulence type                              =  Normal Turbulence Model
   IEC standard                                     =  IEC 61400-1 Ed. 2: 1999
   Mean wind speed at hub height                    =   17.000 m/s
   Char value of turbulence intensity at 15 m/s     =   18.000%
   Standard deviation slope                         =    2.000
   Characteristic value of standard deviation       =    2.940 m/s
   Turbulence scale                                 =   21.000 m
   Isotropic integral scale                         =   73.500 m
   Characteristic value of hub turbulence intensity =   17.294%
   Gradient Richardson number                       =    0.000

   Wind profile type                                =  Power law
   Power law exponent                               =    0.200
   Mean shear across rotor disk                     =    0.049 (m/s)/m
   Assumed rotor diameter                           =  150.000 m
   Surface roughness length                         =    0.030 m

   Nyquist frequency of turbulent wind field        =   10.000 Hz

   Number of time steps in the FFT                  =    12000
   Number of time steps output                      =    12000
   Number of points simulated                       =     2601


Mean Flow Angles:

   Vertical   =   0.0 degrees
   Horizontal =   0.0 degrees

Mean Wind Speed Profile:

   Height    Wind Speed   Horizontal Angle  Vertical Angle  U-comp (X)   V-comp (Y)   W-comp (Z)
     (m)        (m/s)         (degrees)       (degrees)       (m/s)        (m/s)        (m/s)   
   ------    ----------   ----------------  --------------  ----------   ----------   ----------
    165.0       19.19            0.00            0.00         19.19         0.00         0.00
    162.0       19.12            0.00            0.00         19.12         0.00         0.00
    159.0       19.05            0.00            0.00         19.05         0.00         0.00
    156.0       18.98            0.00            0.00         18.98         0.00         0.00
    153.0       18.90            0.00            0.00         18.90         0.00         0.00
    150.0       18.83            0.00            0.00         18.83         0.00         0.00
    147.0       18.75            0.00            0.00         18.75         0.00         0.00
    144.0       18.68            0.00            0.00         18.68         0.00         0.00
    141.0       18.60            0.00            0.00         18.60         0.00         0.00
    138.0       18.52            0.00            0.00         18.52         0.00         0.00
    135.0       18.44            0.00            0.00         18.44         0.00         0.00
    132.0       18.35            0.00            0.00         18.35         0.00         0.00
    129.0       18.27            0.00            0.00         18.27         0.00         0.00
    126.0       18.18            0.00            0.00         18.18         0.00         0.00
    123.0       18.10            0.00            0.00         18.10         0.00         0.00
    120.0       18.01            0.00            0.00         18.01         0.00         0.00
    117.0       17.92            0.00            0.00         17.92         0.00         0.00
    114.0       17.82            0.00            0.00         17.82         0.00         0.00
    111.0       17.73            0.00            0.00         17.73         0.00         0.00
    108.0       17.63            0.00            0.00         17.63         0.00         0.00
    105.0       17.53            0.00            0.00         17.53         0.00         0.00
    102.0       17.43            0.00            0.00         17.43         0.00         0.00
     99.0       17.33            0.00            0.00         17.33         0.00         0.00
     96.0       17.22            0.00            0.00         17.22         0.00         0.00
     93.0       17.11            0.00            0.00         17.11         0.00         0.00
     90.0       17.00            0.00            0.00         17.00         0.00         0.00
     87.0       16.89            0.00            0.00         16.89         0.00         0.00
     84.0       16.77            0.00            0.00         16.77         0.00         0.00
     81.0       16.65            0.00            0.00         16.65         0.00         0.00
     78.0       16.52            0.00            0.00         16.52         0.00         0.00
     75.0       16.39            0.00            0.00         16.39         0.00         0.00
     72.0       16.26            0.00            0.00         16.26         0.00         0.00
     69.0       16.12            0.00            0.00         16.12         0.00         0.00
     66.0       15.98            0.00            0.00         15.98         0.00         0.00
     63.0       15.83            0.00            0.00         15.83         0.00         0.00
     60.0       15.68            0.00            0.00         15.68         0.00         0.00
     57.0       15.52            0.00            0.00         15.52         0.00         0.00
     54.0       15.35            0.00            0.00         15.35         0.00         0.00
     51.0       15.17            0.00            0.00         15.17         0.00         0.00
     48.0       14.99            0.00            0.00         14.99         0.00         0.00
     45.0       14.80            0.00            0.00         14.80         0.00         0.00
     42.0       14.60            0.00            0.00         14.60         0.00         0.00
     39.0       14.38            0.00            0.00         14.38         0.00         0.00
     36.0       14.15            0.00            0.00         14.15         0.00         0.00
     33.0       13.91            0.00            0.00         13.91         0.00         0.00
     30.0       13.65            0.00            0.00         13.65         0.00         0.00
     27.0       13.36            0.00            0.00         13.36         0.00         0.00
     24.0       13.05            0.00            0.00         13.05         0.00         0.00
     21.0       12.71            0.00            0.00         12.71         0.00         0.00
     18.0       12.32            0.00            0.00         12.32         0.00         0.00
     15.0       11.88            0.00            0.00         11.88         0.00         0.00


Harvested Random Seeds after Generation of the Random Numbers:

    435017250 K 1
            0 K 2


Hub-Height Simulated Turbulence Statistical Summary:

   Type of Wind        Min (m/s)   Mean (m/s)    Max (m/s)  Sigma (m/s)       TI (%)
   ----------------    ---------   ----------    ---------  -----------       ------
   Longitudinal (u)         8.67        17.00        26.33        2.651       15.595
   Lateral (v)            -11.10         0.00        10.90        2.897       17.044
   Vertical (w)           -10.31        -0.00        10.93        2.897       17.044
   U component              8.67        17.00        26.33        2.651       15.595
   V component            -11.10         0.00        10.90        2.897       17.044
   W component            -10.31        -0.00        10.93        2.897       17.044
   Horizontal (U&V)         8.88        17.25        26.45        2.652       15.376
   Total                    9.09        17.49        26.73        2.624       15.005

                       Min Reynolds     Mean Reynolds    Max Reynolds    Correlation
   Product             Stress (m/s)^2   Stress (m/s)^2   Stress (m/s)^2  Coefficient
   ----------------    --------------   --------------   --------------  -----------
   u'w'                    -39.200             0.133            53.037         0.017
   u'v'                    -50.919            -0.227            36.918        -0.030
   v'w'                    -75.347            -0.622            46.295        -0.074


   Friction Velocity (Ustar)  =      0.364 m/s
   Maximum Instantaneous TKE  =     77.799 (m/s)^2
   Maximum Instantaneous CTKE =     39.795 (m/s)^2


Grid Point Variance Summary:

   Y-coord  -75.00  -72.00  -69.00  -66.00  -63.00  -60.00  -57.00  -54.00  -51.00  -48.00  -45.00  -42.00  -39.00  -36.00  -33.00  -30.00  -27.00  -24.00  -21.00  -18.00  -15.00  -12.00   -9.00   -6.00   -3.00    0.00    3.00    6.00    9.00   12.00   15.00   18.00   21.00   24.00   27.00   30.00   33.00   36.00   39.00   42.00   45.00   48.00   51.00   54.00   57.00   60.00   63.00   66.00   69.00   72.00   75.00

   Height   Standard deviation at grid points for the u component:
   165.00    2.793   2.791   2.833   2.789   2.851   2.814   2.679   2.662   2.620   2.656   2.755   2.625   2.669   2.697   2.729   2.789   2.722   2.739   2.673   2.620   2.638   2.746   2.772   2.870   2.908   2.890   2.967   3.006   3.028   2.858   2.920   2.841   2.849   2.852   2.898   2.918   2.994   3.102   3.140   3.165   3.191   3.177   3.200   3.121   3.009   3.057   3.150   3.198   3.030   2.846   2.969
   162.00    2.801   2.701   2.697   2.755   2.854   2.897   2.670   2.716   2.842   2.754   2.633   2.568   2.602   2.633   2.659   2.707   2.737   2.652   2.658   2.667   2.545   2.599   2.706   2.739   2.791   2.893   2.953   3.033   2.999   2.830   2.776   2.841   2.869   2.855   2.864   2.924   3.019   3.126   3.219   3.226   3.227   3.184   3.244   3.135   3.068   3.051   3.182   2.969   2.976   2.855   2.805
   159.00    2.709   2.742   2.734   2.744   2.802   2.929   2.814   2.825   2.702   2.687   2.561   2.533   2.530   2.662   2.640   2.620   2.669   2.733   2.672   2.766   2.596   2.613   2.625   2.639   2.700   2.800   2.853   2.939   3.011   2.891   2.907   2.873   2.888   2.890   2.874   2.894   3.100   3.086   3.194   3.148   3.123   3.094   2.974   3.082   2.985   3.035   3.033   2.967   2.891   2.809   2.670
   156.00    2.694   2.739   2.717   2.739   2.781   2.853   2.908   2.847   2.712   2.568   2.560   2.464   2.493   2.616   2.603   2.579   2.578   2.669   2.642   2.587   2.604   2.539   2.587   2.663   2.711   2.776   2.758   2.907   2.923   2.895   2.855   2.861   2.870   2.919   2.995   3.042   3.048   3.123   3.207   3.140   3.078   3.114   3.049   3.017   3.029   2.946   2.931   2.877   2.877   2.863   2.839
   153.00    2.614   2.697   2.766   2.872   2.882   2.902   2.835   2.835   2.672   2.658   2.511   2.437   2.535   2.545   2.570   2.597   2.585   2.560   2.652   2.533   2.537   2.492   2.674   2.625   2.644   2.730   2.794   2.846   2.789   2.741   2.698   2.724   2.840   2.879   2.898   3.053   3.059   3.105   3.113   3.172   3.144   2.943   3.064   3.121   3.095   2.981   2.837   2.865   2.856   2.704   2.807
   150.00    2.666   2.689   2.772   2.839   2.963   2.928   2.759   2.816   2.824   2.603   2.572   2.510   2.406   2.543   2.522   2.565   2.446   2.477   2.439   2.551   2.554   2.581   2.593   2.591   2.659   2.605   2.670   2.701   2.665   2.622   2.638   2.694   2.815   2.824   2.932   2.926   3.062   3.104   3.118   3.183   3.173   3.146   3.047   3.050   3.127   2.995   3.079   2.880   2.874   2.797   2.786
   147.00    2.607   2.702   2.687   2.814   2.923   2.880   2.774   2.859   2.781   2.653   2.558   2.534   2.494   2.598   2.560   2.530   2.487   2.464   2.436   2.565   2.565   2.608   2.701   2.589   2.598   2.711   2.677   2.653   2.677   2.676   2.688   2.729   2.768   2.737   2.884   2.963   3.047   3.038   3.057   3.113   3.134   3.033   2.940   2.973   3.127   3.156   3.037   2.869   2.857   2.798   2.818
   144.00    2.681   2.735   2.745   2.734   2.839   2.815   2.789   2.703   2.740   2.669   2.558   2.500   2.478   2.633   2.520   2.615   2.472   2.594   2.626   2.604   2.556   2.611   2.677   2.630   2.691   2.718   2.648   2.673   2.628   2.660   2.666   2.749   2.752   2.807   2.823   2.935   3.024   3.041   3.167   3.151   3.151   3.094   2.978   2.959   3.005   2.997   2.943   2.834   2.861   2.793   2.778
   141.00    2.733   2.812   2.829   2.766   2.773   2.820   2.867   2.728   2.679   2.526   2.536   2.484   2.631   2.575   2.529   2.673   2.506   2.528   2.577   2.692   2.663   2.713   2.659   2.675   2.711   2.654   2.708   2.729   2.696   2.775   2.765   2.842   2.835   2.821   2.831   2.816   2.966   3.107   3.099   3.002   3.196   3.181   3.110   3.117   2.986   2.895   2.841   2.852   2.887   2.794   2.768
   138.00    2.776   2.859   2.893   2.761   2.794   2.784   2.803   2.732   2.660   2.633   2.645   2.559   2.548   2.580   2.544   2.562   2.587   2.511   2.646   2.683   2.639   2.647   2.643   2.698   2.725   2.791   2.750   2.774   2.749   2.792   2.712   2.786   2.906   2.892   2.777   2.812   2.910   2.927   2.990   2.968   3.109   3.163   3.059   3.063   3.025   2.808   2.865   2.803   2.863   2.725   2.699
   135.00    2.725   2.815   2.846   2.729   2.748   2.897   2.922   2.816   2.589   2.630   2.617   2.672   2.642   2.571   2.567   2.580   2.542   2.625   2.619   2.652   2.723   2.634   2.645   2.740   2.774   2.848   2.884   2.796   2.751   2.747   2.733   2.851   2.910   2.846   2.741   2.804   2.913   2.932   2.889   2.991   3.116   3.204   3.098   3.006   3.019   2.851   2.861   2.880   2.725   2.689   2.645
   132.00    2.820   2.789   2.936   2.852   2.868   2.918   2.913   2.824   2.718   2.718   2.593   2.716   2.714   2.578   2.614   2.579   2.559   2.637   2.680   2.735   2.740   2.607   2.694   2.760   2.872   2.869   2.823   2.845   2.696   2.659   2.709   2.781   2.869   2.932   2.827   2.780   2.890   2.857   2.977   3.028   3.091   3.090   3.071   3.011   2.891   2.956   2.841   2.761   2.780   2.805   2.772
   129.00    2.760   2.737   2.872   2.854   2.729   2.823   2.835   2.844   2.792   2.730   2.716   2.776   2.828   2.664   2.607   2.622   2.649   2.646   2.761   2.735   2.820   2.687   2.624   2.765   2.871   2.888   2.815   2.785   2.792   2.720   2.756   2.772   2.884   2.757   2.778   2.860   2.874   2.982   3.065   3.015   3.021   3.073   3.021   3.002   3.035   3.003   2.856   2.753   2.782   2.838   2.844
   126.00    2.807   2.761   2.699   2.781   2.795   2.847   2.900   2.932   2.854   2.729   2.821   2.802   2.814   2.736   2.646   2.581   2.634   2.673   2.781   2.719   2.653   2.684   2.558   2.673   2.704   2.784   2.784   2.789   2.756   2.708   2.689   2.765   2.793   2.718   2.748   2.801   2.920   3.013   2.971   3.032   2.908   2.925   2.905   2.973   3.066   3.005   2.904   2.744   2.716   2.661   2.746
   123.00    2.820   2.683   2.598   2.700   2.811   2.909   2.934   3.037   2.812   2.804   2.808   2.826   2.807   2.705   2.651   2.612   2.674   2.627   2.658   2.727   2.620   2.644   2.632   2.626   2.681   2.597   2.727   2.728   2.723   2.698   2.679   2.657   2.724   2.795   2.760   2.873   2.872   2.986   2.996   2.993   2.853   2.886   2.754   2.877   2.982   2.919   2.887   2.762   2.613   2.630   2.686
   120.00    2.731   2.632   2.628   2.625   2.782   2.869   2.975   2.959   2.930   2.919   2.948   2.900   2.736   2.743   2.634   2.583   2.637   2.621   2.616   2.594   2.559   2.498   2.532   2.434   2.564   2.585   2.711   2.650   2.751   2.722   2.599   2.581   2.621   2.688   2.685   2.773   2.852   2.851   2.901   2.923   2.961   2.938   2.938   2.915   2.927   2.853   2.680   2.700   2.676   2.650   2.679
   117.00    2.860   2.742   2.656   2.680   2.674   2.827   2.952   3.005   3.001   2.853   2.806   2.784   2.754   2.659   2.654   2.619   2.622   2.666   2.615   2.657   2.578   2.585   2.545   2.490   2.531   2.638   2.696   2.622   2.652   2.736   2.634   2.566   2.561   2.662   2.730   2.823   2.821   2.909   2.948   3.053   2.929   2.899   2.893   2.925   2.999   2.975   2.702   2.745   2.728   2.708   2.742
   114.00    2.748   2.809   2.674   2.613   2.678   2.918   2.908   2.930   2.923   2.869   2.839   2.832   2.812   2.700   2.635   2.738   2.623   2.591   2.717   2.622   2.662   2.616   2.545   2.536   2.475   2.569   2.658   2.635   2.621   2.584   2.590   2.488   2.529   2.618   2.622   2.707   2.823   2.883   2.914   2.943   2.868   2.941   2.983   2.944   3.021   2.944   2.884   2.763   2.824   2.844   2.831
   111.00    2.682   2.795   2.572   2.656   2.783   2.883   2.948   2.914   2.804   2.729   2.729   2.706   2.701   2.611   2.668   2.590   2.540   2.489   2.581   2.670   2.600   2.603   2.544   2.500   2.527   2.447   2.556   2.583   2.635   2.633   2.698   2.557   2.538   2.581   2.667   2.656   2.819   2.925   2.821   2.892   2.895   3.016   3.050   2.902   2.931   2.995   2.955   2.930   2.947   2.897   2.809
   108.00    2.747   2.795   2.738   2.758   2.772   2.773   2.706   2.740   2.811   2.710   2.768   2.750   2.687   2.643   2.560   2.542   2.599   2.462   2.447   2.576   2.640   2.607   2.533   2.593   2.600   2.529   2.631   2.688   2.732   2.636   2.758   2.659   2.588   2.585   2.604   2.623   2.832   2.840   2.810   2.909   3.001   3.050   3.033   2.949   2.869   2.952   3.030   3.009   2.901   2.973   2.862
   105.00    2.721   2.857   2.718   2.809   2.878   2.784   2.716   2.719   2.713   2.775   2.797   2.777   2.757   2.709   2.622   2.618   2.588   2.499   2.479   2.519   2.610   2.517   2.707   2.702   2.665   2.556   2.602   2.707   2.690   2.689   2.750   2.717   2.672   2.608   2.599   2.621   2.707   2.775   2.797   2.968   3.069   3.188   3.112   3.003   2.932   2.924   2.945   2.969   2.891   2.907   2.853
   102.00    2.734   2.855   2.783   2.848   2.855   2.874   2.706   2.659   2.692   2.671   2.813   2.818   2.718   2.657   2.598   2.558   2.436   2.481   2.510   2.594   2.625   2.551   2.725   2.805   2.649   2.757   2.679   2.651   2.715   2.801   2.769   2.847   2.693   2.620   2.534   2.607   2.597   2.678   2.780   2.936   2.997   3.084   3.080   3.054   2.992   2.966   3.006   2.929   2.891   2.909   2.968
    99.00    2.648   2.724   2.777   2.832   2.799   2.805   2.722   2.657   2.604   2.661   2.716   2.762   2.685   2.642   2.671   2.584   2.475   2.464   2.619   2.590   2.526   2.507   2.590   2.655   2.640   2.675   2.762   2.723   2.787   2.846   2.799   2.845   2.712   2.653   2.615   2.626   2.618   2.731   2.740   2.806   2.863   3.062   3.052   3.040   2.932   2.988   3.055   3.012   2.929   2.894   2.862
    96.00    2.642   2.700   2.744   2.736   2.740   2.763   2.732   2.577   2.619   2.669   2.673   2.660   2.638   2.814   2.739   2.674   2.579   2.564   2.534   2.533   2.472   2.416   2.565   2.670   2.635   2.669   2.708   2.781   2.808   2.734   2.776   2.899   2.773   2.666   2.702   2.708   2.768   2.753   2.779   2.783   2.796   2.878   2.929   2.990   3.033   2.923   3.042   3.075   3.018   2.905   2.959
    93.00    2.566   2.664   2.698   2.646   2.665   2.683   2.729   2.683   2.749   2.600   2.573   2.659   2.673   2.725   2.662   2.657   2.665   2.614   2.506   2.631   2.531   2.566   2.612   2.643   2.633   2.599   2.659   2.785   2.767   2.748   2.732   2.826   2.769   2.720   2.721   2.677   2.724   2.765   2.793   2.845   2.843   2.798   2.886   2.937   2.936   2.880   2.990   3.057   2.999   2.949   2.942
    90.00    2.663   2.559   2.639   2.517   2.567   2.600   2.649   2.571   2.630   2.587   2.599   2.603   2.705   2.679   2.760   2.752   2.705   2.680   2.606   2.581   2.554   2.626   2.733   2.754   2.688   2.651   2.721   2.767   2.772   2.743   2.787   2.683   2.780   2.748   2.766   2.736   2.650   2.721   2.750   2.761   2.727   2.900   2.956   2.863   2.836   2.933   2.986   3.048   2.995   2.926   2.950
    87.00    2.669   2.538   2.623   2.528   2.463   2.521   2.658   2.651   2.612   2.572   2.497   2.529   2.671   2.653   2.671   2.818   2.742   2.694   2.676   2.597   2.714   2.688   2.808   2.800   2.737   2.703   2.641   2.690   2.712   2.867   2.792   2.669   2.704   2.701   2.679   2.690   2.711   2.543   2.607   2.640   2.759   2.818   2.793   2.907   2.904   2.957   3.041   3.034   3.011   2.956   2.904
    84.00    2.508   2.465   2.602   2.586   2.537   2.489   2.525   2.584   2.506   2.603   2.570   2.518   2.570   2.588   2.663   2.641   2.701   2.694   2.710   2.752   2.681   2.708   2.875   2.728   2.694   2.695   2.737   2.724   2.698   2.794   2.818   2.802   2.821   2.766   2.766   2.731   2.793   2.751   2.643   2.697   2.817   2.843   2.878   2.784   2.858   2.838   2.855   2.935   2.965   2.912   2.971
    81.00    2.447   2.407   2.451   2.516   2.539   2.489   2.519   2.520   2.558   2.534   2.543   2.501   2.464   2.528   2.544   2.618   2.691   2.751   2.699   2.686   2.682   2.675   2.782   2.766   2.773   2.812   2.786   2.793   2.743   2.711   2.722   2.863   2.905   2.906   2.844   2.688   2.819   2.810   2.799   2.753   2.789   2.801   2.797   2.874   2.817   2.842   2.871   2.853   2.802   2.837   2.859
    78.00    2.483   2.368   2.382   2.480   2.389   2.396   2.524   2.443   2.473   2.496   2.613   2.649   2.568   2.519   2.624   2.713   2.757   2.811   2.845   2.715   2.617   2.806   2.813   2.816   2.851   2.696   2.734   2.731   2.719   2.727   2.756   2.852   2.872   2.905   2.864   2.810   2.629   2.767   2.860   2.774   2.793   2.811   2.838   2.945   2.944   2.863   2.903   2.849   2.774   2.745   2.759
    75.00    2.517   2.418   2.397   2.468   2.544   2.443   2.370   2.406   2.467   2.566   2.638   2.650   2.639   2.690   2.725   2.865   2.867   2.839   2.888   2.756   2.807   2.842   2.875   2.763   2.725   2.701   2.646   2.676   2.780   2.812   2.825   2.761   2.873   2.911   2.976   2.875   2.749   2.763   2.783   2.868   2.807   2.767   2.772   2.977   3.037   2.968   2.907   2.892   2.775   2.812   2.806
    72.00    2.548   2.481   2.372   2.518   2.492   2.438   2.395   2.424   2.502   2.578   2.560   2.733   2.782   2.797   2.846   2.802   2.803   2.857   2.887   2.868   2.795   2.838   2.819   2.815   2.720   2.696   2.727   2.619   2.771   2.838   2.892   2.888   2.829   2.783   2.776   2.843   2.746   2.885   2.839   2.853   2.740   2.730   2.858   3.112   2.962   3.039   3.005   2.876   2.899   2.922   2.845
    69.00    2.650   2.437   2.405   2.443   2.477   2.431   2.417   2.498   2.540   2.622   2.740   2.730   2.771   2.710   2.659   2.782   2.829   2.836   2.792   2.889   2.881   2.846   2.852   2.841   2.866   2.761   2.715   2.641   2.802   2.848   2.868   2.821   2.821   2.865   2.835   2.801   2.767   2.819   2.752   2.792   2.733   2.700   2.855   2.940   3.027   3.060   3.095   3.011   3.091   2.937   2.852
    66.00    2.657   2.592   2.600   2.404   2.466   2.419   2.420   2.514   2.609   2.621   2.678   2.665   2.790   2.786   2.795   2.789   2.818   2.725   2.742   2.813   2.799   2.842   2.972   2.847   2.827   2.804   2.713   2.759   2.787   2.802   2.931   2.758   2.793   2.875   2.847   2.896   2.895   2.803   2.772   2.771   2.731   2.860   2.827   2.935   2.973   3.037   3.144   3.124   3.251   3.125   2.991
    63.00    2.651   2.539   2.549   2.543   2.355   2.438   2.559   2.608   2.603   2.666   2.690   2.625   2.707   2.816   2.836   2.858   2.785   2.734   2.803   2.793   2.820   3.021   2.934   2.860   2.755   2.724   2.752   2.746   2.694   2.769   2.872   2.954   2.895   2.975   2.937   2.876   2.852   2.804   2.809   2.803   2.841   2.776   2.837   3.011   2.994   3.030   3.180   3.248   3.241   3.117   3.015
    60.00    2.737   2.605   2.569   2.441   2.390   2.370   2.477   2.637   2.597   2.706   2.902   2.841   2.831   2.846   2.820   2.840   2.922   2.800   2.706   2.835   2.862   2.953   2.930   2.875   2.860   2.865   2.824   2.762   2.647   2.685   2.762   2.865   2.918   3.009   2.923   2.981   2.912   2.910   2.806   2.748   2.832   2.893   2.814   2.899   3.003   3.109   3.129   3.189   3.170   3.106   3.028
    57.00    2.740   2.673   2.536   2.584   2.475   2.494   2.494   2.571   2.564   2.686   2.877   2.849   2.842   2.775   2.794   2.918   2.904   2.775   2.807   2.741   2.877   2.943   2.888   2.956   2.846   2.777   2.666   2.803   2.657   2.731   2.779   2.872   2.835   2.969   2.942   2.968   2.847   2.920   2.811   2.878   2.931   2.941   2.934   2.971   3.021   3.038   3.075   3.155   3.234   3.173   3.165
    54.00    2.747   2.694   2.706   2.648   2.562   2.533   2.506   2.497   2.555   2.590   2.815   2.881   2.880   2.826   2.954   2.844   2.890   2.849   2.729   2.833   2.840   2.788   2.863   2.869   2.823   2.749   2.597   2.773   2.794   2.777   2.813   2.863   2.828   2.934   2.977   3.002   3.010   2.870   2.949   2.950   3.008   3.064   3.012   3.023   2.989   3.025   3.180   3.062   3.106   3.226   3.187
    51.00    2.757   2.693   2.658   2.654   2.593   2.576   2.640   2.538   2.596   2.708   2.782   2.901   2.897   2.810   2.885   2.810   2.853   2.860   2.903   2.828   2.780   2.801   2.902   2.833   2.872   2.850   2.834   2.910   2.839   2.868   2.941   2.916   2.945   3.037   3.005   2.975   3.050   3.001   2.928   2.916   2.948   2.910   3.039   2.930   2.925   2.959   3.094   3.121   3.130   3.100   2.951
    48.00    2.698   2.743   2.658   2.635   2.607   2.640   2.604   2.667   2.578   2.666   2.786   2.885   2.854   2.832   2.914   2.909   2.813   2.803   2.743   2.711   2.816   2.903   2.860   2.839   2.886   2.907   2.903   3.013   2.885   2.906   2.919   3.003   3.037   3.116   3.141   3.112   3.138   3.080   2.930   2.895   2.867   2.941   2.915   2.862   2.938   3.122   3.216   3.146   3.111   3.097   2.972
    45.00    2.708   2.728   2.714   2.668   2.711   2.615   2.686   2.624   2.625   2.668   2.796   2.813   2.889   2.835   2.823   2.782   2.722   2.827   2.782   2.807   2.879   2.855   2.955   2.784   2.969   2.943   2.972   2.979   3.021   2.999   2.878   2.852   2.959   3.089   3.153   3.123   3.055   2.979   2.815   2.843   2.835   2.928   2.958   2.860   2.983   3.017   3.146   3.151   3.175   3.283   3.242
    42.00    2.685   2.740   2.628   2.697   2.720   2.752   2.693   2.711   2.704   2.760   2.765   2.704   2.774   2.796   2.771   2.786   2.721   2.800   2.786   2.925   2.827   2.887   3.055   2.902   2.919   2.925   2.995   3.067   2.979   2.976   2.914   2.812   3.030   2.996   2.992   2.977   2.981   2.900   2.913   2.772   2.917   2.937   2.824   2.826   2.906   2.926   3.058   2.990   3.046   3.184   3.178
    39.00    2.638   2.637   2.591   2.662   2.798   2.790   2.651   2.637   2.628   2.683   2.625   2.690   2.691   2.681   2.700   2.745   2.840   2.695   2.720   2.803   2.881   2.960   2.930   2.940   3.014   3.057   3.073   3.128   3.126   2.919   2.896   2.904   2.994   2.929   3.042   2.956   2.904   2.869   2.859   2.911   2.979   2.987   2.889   2.882   2.916   2.968   2.878   2.902   3.022   3.127   3.223
    36.00    2.882   2.757   2.739   2.780   2.847   2.747   2.764   2.668   2.631   2.591   2.702   2.650   2.725   2.703   2.711   2.670   2.731   2.704   2.771   2.801   2.835   2.872   2.977   2.965   2.947   3.069   3.173   3.185   3.080   3.032   3.041   3.070   3.068   3.014   3.013   2.941   3.049   3.042   3.060   2.978   2.976   3.012   2.812   2.822   2.823   2.893   2.890   2.952   3.001   3.174   3.178
    33.00    2.837   2.815   2.785   2.773   2.817   2.724   2.700   2.700   2.646   2.614   2.698   2.682   2.754   2.797   2.741   2.748   2.937   2.777   2.709   2.791   2.741   2.890   3.037   2.940   2.905   3.058   3.117   3.202   3.192   3.184   3.105   3.186   3.133   2.953   3.077   3.121   3.084   3.054   3.127   3.093   3.138   3.054   2.906   2.769   2.798   2.897   3.061   2.944   3.010   3.121   3.148
    30.00    2.959   2.875   2.815   2.711   2.779   2.749   2.680   2.743   2.614   2.693   2.732   2.788   2.760   2.802   2.752   2.877   2.869   2.766   2.716   2.672   2.745   2.827   2.948   2.818   2.826   2.963   3.151   3.138   3.242   3.144   3.130   3.252   3.113   2.902   3.075   3.061   3.038   2.981   2.986   3.130   3.145   3.018   2.889   2.825   2.805   2.895   3.025   2.999   3.077   3.096   3.134
    27.00    2.902   2.928   3.002   2.811   2.816   2.804   2.730   2.787   2.716   2.712   2.808   2.778   2.840   2.804   2.718   2.862   2.917   2.712   2.742   2.679   2.723   2.824   2.892   2.823   2.869   2.969   3.064   3.034   3.072   3.174   3.203   3.091   3.097   3.110   2.988   2.978   2.986   2.997   2.927   2.991   3.003   3.056   3.077   2.976   2.979   2.941   2.943   2.937   3.071   3.178   3.198
    24.00    2.876   2.893   2.792   2.824   2.805   2.903   2.745   2.856   2.819   2.851   2.896   2.908   2.914   2.834   2.808   2.731   2.843   2.804   2.718   2.800   2.833   2.846   2.937   2.890   2.863   2.983   2.946   3.069   3.076   3.206   3.104   3.130   3.172   3.042   2.967   2.985   2.934   2.953   2.946   2.897   2.948   2.975   3.033   2.996   3.078   3.004   3.020   3.031   3.212   3.189   3.067
    21.00    2.855   2.809   2.914   2.815   2.718   2.830   2.869   2.788   2.877   2.764   2.889   2.967   2.820   2.875   2.819   2.750   2.681   2.590   2.642   2.866   2.753   2.881   2.835   2.917   2.886   2.869   2.909   3.088   2.967   3.173   3.140   3.073   3.106   3.112   2.999   3.007   2.968   2.901   2.893   3.037   2.981   2.894   3.028   2.907   2.929   2.980   2.919   2.945   3.175   3.200   3.062
    18.00    2.820   2.857   2.759   2.766   2.720   2.849   2.767   2.839   2.842   2.858   2.875   2.890   2.864   2.884   2.853   2.793   2.762   2.743   2.873   2.913   2.866   2.856   2.761   2.743   2.770   2.758   2.974   3.016   2.903   3.035   3.063   3.065   3.073   3.076   3.020   3.052   2.820   2.901   2.936   3.067   3.002   2.901   2.904   2.928   2.916   2.933   2.965   3.014   3.061   3.076   2.996
    15.00    2.896   2.804   2.682   2.731   2.723   2.803   2.822   2.846   2.755   2.762   2.773   2.820   2.767   2.869   2.909   2.890   2.820   2.827   2.806   2.880   2.864   2.793   2.766   2.791   2.752   2.778   2.856   2.936   2.908   3.006   3.170   3.077   3.065   2.994   3.009   3.043   2.852   2.930   2.947   2.905   2.947   3.012   2.948   3.013   2.960   2.930   3.004   3.140   3.026   3.011   3.050

   Height   Standard deviation at grid points for the v component:
   165.00    2.897   2.897   2.897   2.897   2.897   2.897   2.897   2.897   2.897   2.897   2.897   2.897   2.897   2.897   2.897   2.897   2.897   2.897   2.897   2.897   2.897   2.897   2.897   2.897   2.897   2.897   2.897   2.897   2.897   2.897   2.897   2.897   2.897   2.897   2.897   2.897   2.897   2.897   2.897   2.897   2.897   2.897   2.897   2.897   2.897   2.897   2.897   2.897   2.897   2.897   2.897
   162.00    2.897   2.897   2.897   2.897   2.897   2.897   2.897   2.897   2.897   2.897   2.897   2.897   2.897   2.897   2.897   2.897   2.897   2.897   2.897   2.897   2.897   2.897   2.897   2.897   2.897   2.897   2.897   2.897   2.897   2.897   2.897   2.897   2.897   2.897   2.897   2.897   2.897   2.897   2.897   2.897   2.897   2.897   2.897   2.897   2.897   2.897   2.897   2.897   2.897   2.897   2.897
   159.00    2.897   2.897   2.897   2.897   2.897   2.897   2.897   2.897   2.897   2.897   2.897   2.897   2.897   2.897   2.897   2.897   2.897   2.897   2.897   2.897   2.897   2.897   2.897   2.897   2.897   2.897   2.897   2.897   2.897   2.897   2.897   2.897   2.897   2.897   2.897   2.897   2.897   2.897   2.897   2.897   2.897   2.897   2.897   2.897   2.897   2.897   2.897   2.897   2.897   2.897   2.897
   156.00    2.897   2.897   2.897   2.897   2.897   2.897   2.897   2.897   2.897   2.897   2.897   2.897   2.897   2.897   2.897   2.897   2.897   2.897   2.897   2.897   2.897   2.897   2.897   2.897   2.897   2.897   2.897   2.897   2.897   2.897   2.897   2.897   2.897   2.897   2.897   2.897   2.897   2.897   2.897   2.897   2.897   2.897   2.897   2.897   2.897   2.897   2.897   2.897   2.897   2.897   2.897
   153.00    2.897   2.897   2.897   2.897   2.897   2.897   2.897   2.897   2.897   2.897   2.897   2.897   2.897   2.897   2.897   2.897   2.897   2.897   2.897   2.897   2.897   2.897   2.897   2.897   2.897   2.897   2.897   2.897   2.897   2.897   2.897   2.897   2.897   2.897   2.897   2.897   2.897   2.897   2.897   2.897   2.897   2.897   2.897   2.897   2.897   2.897   2.897   2.897   2.897   2.897   2.897
   150.00    2.897   2.897   2.897   2.897   2.897   2.897   2.897   2.897   2.897   2.897   2.897   2.897   2.897   2.897   2.897   2.897   2.897   2.897   2.897   2.897   2.897   2.897   2.897   2.897   2.897   2.897   2.897   2.897   2.897   2.897   2.897   2.897   2.897   2.897   2.897   2.897   2.897   2.897   2.897   2.897   2.897   2.897   2.897   2.897   2.897   2.897   2.897   2.897   2.897   2.897   2.897
   147.00    2.897   2.897   2.897   2.897   2.897   2.897   2.897   2.897   2.897   2.897   2.897   2.897   2.897   2.897   2.897   2.897   2.897   2.897   2.897   2.897   2.897   2.897   2.897   2.897   2.897   2.897   2.897   2.897   2.897   2.897   2.897   2.897   2.897   2.897   2.897   2.897   2.897   2.897   2.897   2.897   2.897   2.897   2.897   2.897   2.897   2.897   2.897   2.897   2.897   2.897   2.897
   144.00    2.897   2.897   2.897   2.897   2.897   2.897   2.897   2.897   2.897   2.897   2.897   2.897   2.897   2.897   2.897   2.897   2.897   2.897   2.897   2.897   2.897   2.897   2.897   2.897   2.897   2.897   2.897   2.897   2.897   2.897   2.897   2.897   2.897   2.897   2.897   2.897   2.897   2.897   2.897   2.897   2.897   2.897   2.897   2.897   2.897   2.897   2.897   2.897   2.897   2.897   2.897
   141.00    2.897   2.897   2.897   2.897   2.897   2.897   2.897   2.897   2.897   2.897   2.897   2.897   2.897   2.897   2.897   2.897   2.897   2.897   2.897   2.897   2.897   2.897   2.897   2.897   2.897   2.897   2.897   2.897   2.897   2.897   2.897   2.897   2.897   2.897   2.897   2.897   2.897   2.897   2.897   2.897   2.897   2.897   2.897   2.897   2.897   2.897   2.897   2.897   2.897   2.897   2.897
   138.00    2.897   2.897   2.897   2.897   2.897   2.897   2.897   2.897   2.897   2.897   2.897   2.897   2.897   2.897   2.897   2.897   2.897   2.897   2.897   2.897   2.897   2.897   2.897   2.897   2.897   2.897   2.897   2.897   2.897   2.897   2.897   2.897   2.897   2.897   2.897   2.897   2.897   2.897   2.897   2.897   2.897   2.897   2.897   2.897   2.897   2.897   2.897   2.897   2.897   2.897   2.897
   135.00    2.897   2.897   2.897   2.897   2.897   2.897   2.897   2.897   2.897   2.897   2.897   2.897   2.897   2.897   2.897   2.897   2.897   2.897   2.897   2.897   2.897   2.897   2.897   2.897   2.897   2.897   2.897   2.897   2.897   2.897   2.897   2.897   2.897   2.897   2.897   2.897   2.897   2.897   2.897   2.897   2.897   2.897   2.897   2.897   2.897   2.897   2.897   2.897   2.897   2.897   2.897
   132.00    2.897   2.897   2.897   2.897   2.897   2.897   2.897   2.897   2.897   2.897   2.897   2.897   2.897   2.897   2.897   2.897   2.897   2.897   2.897   2.897   2.897   2.897   2.897   2.897   2.897   2.897   2.897   2.897   2.897   2.897   2.897   2.897   2.897   2.897   2.897   2.897   2.897   2.897   2.897   2.897   2.897   2.897   2.897   2.897   2.897   2.897   2.897   2.897   2.897   2.897   2.897
   129.00    2.897   2.897   2.897   2.897   2.897   2.897   2.897   2.897   2.897   2.897   2.897   2.897   2.897   2.897   2.897   2.897   2.897   2.897   2.897   2.897   2.897   2.897   2.897   2.897   2.897   2.897   2.897   2.897   2.897   2.897   2.897   2.897   2.897   2.897   2.897   2.897   2.897   2.897   2.897   2.897   2.897   2.897   2.897   2.897   2.897   2.897   2.897   2.897   2.897   2.897   2.897
   126.00    2.897   2.897   2.897   2.897   2.897   2.897   2.897   2.897   2.897   2.897   2.897   2.897   2.897   2.897   2.897   2.897   2.897   2.897   2.897   2.897   2.897   2.897   2.897   2.897   2.897   2.897   2.897   2.897   2.897   2.897   2.897   2.897   2.897   2.897   2.897   2.897   2.897   2.897   2.897   2.897   2.897   2.897   2.897   2.897   2.897   2.897   2.897   2.897   2.897   2.897   2.897
   123.00    2.897   2.897   2.897   2.897   2.897   2.897   2.897   2.897   2.897   2.897   2.897   2.897   2.897   2.897   2.897   2.897   2.897   2.897   2.897   2.897   2.897   2.897   2.897   2.897   2.897   2.897   2.897   2.897   2.897   2.897   2.897   2.897   2.897   2.897   2.897   2.897   2.897   2.897   2.897   2.897   2.897   2.897   2.897   2.897   2.897   2.897   2.897   2.897   2.897   2.897   2.897
   120.00    2.897   2.897   2.897   2.897   2.897   2.897   2.897   2.897   2.897   2.897   2.897   2.897   2.897   2.897   2.897   2.897   2.897   2.897   2.897   2.897   2.897   2.897   2.897   2.897   2.897   2.897   2.897   2.897   2.897   2.897   2.897   2.897   2.897   2.897   2.897   2.897   2.897   2.897   2.897   2.897   2.897   2.897   2.897   2.897   2.897   2.897   2.897   2.897   2.897   2.897   2.897
   117.00    2.897   2.897   2.897   2.897   2.897   2.897   2.897   2.897   2.897   2.897   2.897   2.897   2.897   2.897   2.897   2.897   2.897   2.897   2.897   2.897   2.897   2.897   2.897   2.897   2.897   2.897   2.897   2.897   2.897   2.897   2.897   2.897   2.897   2.897   2.897   2.897   2.897   2.897   2.897   2.897   2.897   2.897   2.897   2.897   2.897   2.897   2.897   2.897   2.897   2.897   2.897
   114.00    2.897   2.897   2.897   2.897   2.897   2.897   2.897   2.897   2.897   2.897   2.897   2.897   2.897   2.897   2.897   2.897   2.897   2.897   2.897   2.897   2.897   2.897   2.897   2.897   2.897   2.897   2.897   2.897   2.897   2.897   2.897   2.897   2.897   2.897   2.897   2.897   2.897   2.897   2.897   2.897   2.897   2.897   2.897   2.897   2.897   2.897   2.897   2.897   2.897   2.897   2.897
   111.00    2.897   2.897   2.897   2.897   2.897   2.897   2.897   2.897   2.897   2.897   2.897   2.897   2.897   2.897   2.897   2.897   2.897   2.897   2.897   2.897   2.897   2.897   2.897   2.897   2.897   2.897   2.897   2.897   2.897   2.897   2.897   2.897   2.897   2.897   2.897   2.897   2.897   2.897   2.897   2.897   2.897   2.897   2.897   2.897   2.897   2.897   2.897   2.897   2.897   2.897   2.897
   108.00    2.897   2.897   2.897   2.897   2.897   2.897   2.897   2.897   2.897   2.897   2.897   2.897   2.897   2.897   2.897   2.897   2.897   2.897   2.897   2.897   2.897   2.897   2.897   2.897   2.897   2.897   2.897   2.897   2.897   2.897   2.897   2.897   2.897   2.897   2.897   2.897   2.897   2.897   2.897   2.897   2.897   2.897   2.897   2.897   2.897   2.897   2.897   2.897   2.897   2.897   2.897
   105.00    2.897   2.897   2.897   2.897   2.897   2.897   2.897   2.897   2.897   2.897   2.897   2.897   2.897   2.897   2.897   2.897   2.897   2.897   2.897   2.897   2.897   2.897   2.897   2.897   2.897   2.897   2.897   2.897   2.897   2.897   2.897   2.897   2.897   2.897   2.897   2.897   2.897   2.897   2.897   2.897   2.897   2.897   2.897   2.897   2.897   2.897   2.897   2.897   2.897   2.897   2.897
   102.00    2.897   2.897   2.897   2.897   2.897   2.897   2.897   2.897   2.897   2.897   2.897   2.897   2.897   2.897   2.897   2.897   2.897   2.897   2.897   2.897   2.897   2.897   2.897   2.897   2.897   2.897   2.897   2.897   2.897   2.897   2.897   2.897   2.897   2.897   2.897   2.897   2.897   2.897   2.897   2.897   2.897   2.897   2.897   2.897   2.897   2.897   2.897   2.897   2.897   2.897   2.897
    99.00    2.897   2.897   2.897   2.897   2.897   2.897   2.897   2.897   2.897   2.897   2.897   2.897   2.897   2.897   2.897   2.897   2.897   2.897   2.897   2.897   2.897   2.897   2.897   2.897   2.897   2.897   2.897   2.897   2.897   2.897   2.897   2.897   2.897   2.897   2.897   2.897   2.897   2.897   2.897   2.897   2.897   2.897   2.897   2.897   2.897   2.897   2.897   2.897   2.897   2.897   2.897
    96.00    2.897   2.897   2.897   2.897   2.897   2.897   2.897   2.897   2.897   2.897   2.897   2.897   2.897   2.897   2.897   2.897   2.897   2.897   2.897   2.897   2.897   2.897   2.897   2.897   2.897   2.897   2.897   2.897   2.897   2.897   2.897   2.897   2.897   2.897   2.897   2.897   2.897   2.897   2.897   2.897   2.897   2.897   2.897   2.897   2.897   2.897   2.897   2.897   2.897   2.897   2.897
    93.00    2.897   2.897   2.897   2.897   2.897   2.897   2.897   2.897   2.897   2.897   2.897   2.897   2.897   2.897   2.897   2.897   2.897   2.897   2.897   2.897   2.897   2.897   2.897   2.897   2.897   2.897   2.897   2.897   2.897   2.897   2.897   2.897   2.897   2.897   2.897   2.897   2.897   2.897   2.897   2.897   2.897   2.897   2.897   2.897   2.897   2.897   2.897   2.897   2.897   2.897   2.897
    90.00    2.897   2.897   2.897   2.897   2.897   2.897   2.897   2.897   2.897   2.897   2.897   2.897   2.897   2.897   2.897   2.897   2.897   2.897   2.897   2.897   2.897   2.897   2.897   2.897   2.897   2.897   2.897   2.897   2.897   2.897   2.897   2.897   2.897   2.897   2.897   2.897   2.897   2.897   2.897   2.897   2.897   2.897   2.897   2.897   2.897   2.897   2.897   2.897   2.897   2.897   2.897
    87.00    2.897   2.897   2.897   2.897   2.897   2.897   2.897   2.897   2.897   2.897   2.897   2.897   2.897   2.897   2.897   2.897   2.897   2.897   2.897   2.897   2.897   2.897   2.897   2.897   2.897   2.897   2.897   2.897   2.897   2.897   2.897   2.897   2.897   2.897   2.897   2.897   2.897   2.897   2.897   2.897   2.897   2.897   2.897   2.897   2.897   2.897   2.897   2.897   2.897   2.897   2.897
    84.00    2.897   2.897   2.897   2.897   2.897   2.897   2.897   2.897   2.897   2.897   2.897   2.897   2.897   2.897   2.897   2.897   2.897   2.897   2.897   2.897   2.897   2.897   2.897   2.897   2.897   2.897   2.897   2.897   2.897   2.897   2.897   2.897   2.897   2.897   2.897   2.897   2.897   2.897   2.897   2.897   2.897   2.897   2.897   2.897   2.897   2.897   2.897   2.897   2.897   2.897   2.897
    81.00    2.897   2.897   2.897   2.897   2.897   2.897   2.897   2.897   2.897   2.897   2.897   2.897   2.897   2.897   2.897   2.897   2.897   2.897   2.897   2.897   2.897   2.897   2.897   2.897   2.897   2.897   2.897   2.897   2.897   2.897   2.897   2.897   2.897   2.897   2.897   2.897   2.897   2.897   2.897   2.897   2.897   2.897   2.897   2.897   2.897   2.897   2.897   2.897   2.897   2.897   2.897
    78.00    2.897   2.897   2.897   2.897   2.897   2.897   2.897   2.897   2.897   2.897   2.897   2.897   2.897   2.897   2.897   2.897   2.897   2.897   2.897   2.897   2.897   2.897   2.897   2.897   2.897   2.897   2.897   2.897   2.897   2.897   2.897   2.897   2.897   2.897   2.897   2.897   2.897   2.897   2.897   2.897   2.897   2.897   2.897   2.897   2.897   2.897   2.897   2.897   2.897   2.897   2.897
    75.00    2.897   2.897   2.897   2.897   2.897   2.897   2.897   2.897   2.897   2.897   2.897   2.897   2.897   2.897   2.897   2.897   2.897   2.897   2.897   2.897   2.897   2.897   2.897   2.897   2.897   2.897   2.897   2.897   2.897   2.897   2.897   2.897   2.897   2.897   2.897   2.897   2.897   2.897   2.897   2.897   2.897   2.897   2.897   2.897   2.897   2.897   2.897   2.897   2.897   2.897   2.897
    72.00    2.897   2.897   2.897   2.897   2.897   2.897   2.897   2.897   2.897   2.897   2.897   2.897   2.897   2.897   2.897   2.897   2.897   2.897   2.897   2.897   2.897   2.897   2.897   2.897   2.897   2.897   2.897   2.897   2.897   2.897   2.897   2.897   2.897   2.897   2.897   2.897   2.897   2.897   2.897   2.897   2.897   2.897   2.897   2.897   2.897   2.897   2.897   2.897   2.897   2.897   2.897
    69.00    2.897   2.897   2.897   2.897   2.897   2.897   2.897   2.897   2.897   2.897   2.897   2.897   2.897   2.897   2.897   2.897   2.897   2.897   2.897   2.897   2.897   2.897   2.897   2.897   2.897   2.897   2.897   2.897   2.897   2.897   2.897   2.897   2.897   2.897   2.897   2.897   2.897   2.897   2.897   2.897   2.897   2.897   2.897   2.897   2.897   2.897   2.897   2.897   2.897   2.897   2.897
    66.00    2.897   2.897   2.897   2.897   2.897   2.897   2.897   2.897   2.897   2.897   2.897   2.897   2.897   2.897   2.897   2.897   2.897   2.897   2.897   2.897   2.897   2.897   2.897   2.897   2.897   2.897   2.897   2.897   2.897   2.897   2.897   2.897   2.897   2.897   2.897   2.897   2.897   2.897   2.897   2.897   2.897   2.897   2.897   2.897   2.897   2.897   2.897   2.897   2.897   2.897   2.897
    63.00    2.897   2.897   2.897   2.897   2.897   2.897   2.897   2.897   2.897   2.897   2.897   2.897   2.897   2.897   2.897   2.897   2.897   2.897   2.897   2.897   2.897   2.897   2.897   2.897   2.897   2.897   2.897   2.897   2.897   2.897   2.897   2.897   2.897   2.897   2.897   2.897   2.897   2.897   2.897   2.897   2.897   2.897   2.897   2.897   2.897   2.897   2.897   2.897   2.897   2.897   2.897
    60.00    2.897   2.897   2.897   2.897   2.897   2.897   2.897   2.897   2.897   2.897   2.897   2.897   2.897   2.897   2.897   2.897   2.897   2.897   2.897   2.897   2.897   2.897   2.897   2.897   2.897   2.897   2.897   2.897   2.897   2.897   2.897   2.897   2.897   2.897   2.897   2.897   2.897   2.897   2.897   2.897   2.897   2.897   2.897   2.897   2.897   2.897   2.897   2.897   2.897   2.897   2.897
    57.00    2.897   2.897   2.897   2.897   2.897   2.897   2.897   2.897   2.897   2.897   2.897   2.897   2.897   2.897   2.897   2.897   2.897   2.897   2.897   2.897   2.897   2.897   2.897   2.897   2.897   2.897   2.897   2.897   2.897   2.897   2.897   2.897   2.897   2.897   2.897   2.897   2.897   2.897   2.897   2.897   2.897   2.897   2.897   2.897   2.897   2.897   2.897   2.897   2.897   2.897   2.897
    54.00    2.897   2.897   2.897   2.897   2.897   2.897   2.897   2.897   2.897   2.897   2.897   2.897   2.897   2.897   2.897   2.897   2.897   2.897   2.897   2.897   2.897   2.897   2.897   2.897   2.897   2.897   2.897   2.897   2.897   2.897   2.897   2.897   2.897   2.897   2.897   2.897   2.897   2.897   2.897   2.897   2.897   2.897   2.897   2.897   2.897   2.897   2.897   2.897   2.897   2.897   2.897
    51.00    2.897   2.897   2.897   2.897   2.897   2.897   2.897   2.897   2.897   2.897   2.897   2.897   2.897   2.897   2.897   2.897   2.897   2.897   2.897   2.897   2.897   2.897   2.897   2.897   2.897   2.897   2.897   2.897   2.897   2.897   2.897   2.897   2.897   2.897   2.897   2.897   2.897   2.897   2.897   2.897   2.897   2.897   2.897   2.897   2.897   2.897   2.897   2.897   2.897   2.897   2.897
    48.00    2.897   2.897   2.897   2.897   2.897   2.897   2.897   2.897   2.897   2.897   2.897   2.897   2.897   2.897   2.897   2.897   2.897   2.897   2.897   2.897   2.897   2.897   2.897   2.897   2.897   2.897   2.897   2.897   2.897   2.897   2.897   2.897   2.897   2.897   2.897   2.897   2.897   2.897   2.897   2.897   2.897   2.897   2.897   2.897   2.897   2.897   2.897   2.897   2.897   2.897   2.897
    45.00    2.897   2.897   2.897   2.897   2.897   2.897   2.897   2.897   2.897   2.897   2.897   2.897   2.897   2.897   2.897   2.897   2.897   2.897   2.897   2.897   2.897   2.897   2.897   2.897   2.897   2.897   2.897   2.897   2.897   2.897   2.897   2.897   2.897   2.897   2.897   2.897   2.897   2.897   2.897   2.897   2.897   2.897   2.897   2.897   2.897   2.897   2.897   2.897   2.897   2.897   2.897
    42.00    2.897   2.897   2.897   2.897   2.897   2.897   2.897   2.897   2.897   2.897   2.897   2.897   2.897   2.897   2.897   2.897   2.897   2.897   2.897   2.897   2.897   2.897   2.897   2.897   2.897   2.897   2.897   2.897   2.897   2.897   2.897   2.897   2.897   2.897   2.897   2.897   2.897   2.897   2.897   2.897   2.897   2.897   2.897   2.897   2.897   2.897   2.897   2.897   2.897   2.897   2.897
    39.00    2.897   2.897   2.897   2.897   2.897   2.897   2.897   2.897   2.897   2.897   2.897   2.897   2.897   2.897   2.897   2.897   2.897   2.897   2.897   2.897   2.897   2.897   2.897   2.897   2.897   2.897   2.897   2.897   2.897   2.897   2.897   2.897   2.897   2.897   2.897   2.897   2.897   2.897   2.897   2.897   2.897   2.897   2.897   2.897   2.897   2.897   2.897   2.897   2.897   2.897   2.897
    36.00    2.897   2.897   2.897   2.897   2.897   2.897   2.897   2.897   2.897   2.897   2.897   2.897   2.897   2.897   2.897   2.897   2.897   2.897   2.897   2.897   2.897   2.897   2.897   2.897   2.897   2.897   2.897   2.897   2.897   2.897   2.897   2.897   2.897   2.897   2.897   2.897   2.897   2.897   2.897   2.897   2.897   2.897   2.897   2.897   2.897   2.897   2.897   2.897   2.897   2.897   2.897
    33.00    2.897   2.897   2.897   2.897   2.897   2.897   2.897   2.897   2.897   2.897   2.897   2.897   2.897   2.897   2.897   2.897   2.897   2.897   2.897   2.897   2.897   2.897   2.897   2.897   2.897   2.897   2.897   2.897   2.897   2.897   2.897   2.897   2.897   2.897   2.897   2.897   2.897   2.897   2.897   2.897   2.897   2.897   2.897   2.897   2.897   2.897   2.897   2.897   2.897   2.897   2.897
    30.00    2.897   2.897   2.897   2.897   2.897   2.897   2.897   2.897   2.897   2.897   2.897   2.897   2.897   2.897   2.897   2.897   2.897   2.897   2.897   2.897   2.897   2.897   2.897   2.897   2.897   2.897   2.897   2.897   2.897   2.897   2.897   2.897   2.897   2.897   2.897   2.897   2.897   2.897   2.897   2.897   2.897   2.897   2.897   2.897   2.897   2.897   2.897   2.897   2.897   2.897   2.897
    27.00    2.897   2.897   2.897   2.897   2.897   2.897   2.897   2.897   2.897   2.897   2.897   2.897   2.897   2.897   2.897   2.897   2.897   2.897   2.897   2.897   2.897   2.897   2.897   2.897   2.897   2.897   2.897   2.897   2.897   2.897   2.897   2.897   2.897   2.897   2.897   2.897   2.897   2.897   2.897   2.897   2.897   2.897   2.897   2.897   2.897   2.897   2.897   2.897   2.897   2.897   2.897
    24.00    2.897   2.897   2.897   2.897   2.897   2.897   2.897   2.897   2.897   2.897   2.897   2.897   2.897   2.897   2.897   2.897   2.897   2.897   2.897   2.897   2.897   2.897   2.897   2.897   2.897   2.897   2.897   2.897   2.897   2.897   2.897   2.897   2.897   2.897   2.897   2.897   2.897   2.897   2.897   2.897   2.897   2.897   2.897   2.897   2.897   2.897   2.897   2.897   2.897   2.897   2.897
    21.00    2.897   2.897   2.897   2.897   2.897   2.897   2.897   2.897   2.897   2.897   2.897   2.897   2.897   2.897   2.897   2.897   2.897   2.897   2.897   2.897   2.897   2.897   2.897   2.897   2.897   2.897   2.897   2.897   2.897   2.897   2.897   2.897   2.897   2.897   2.897   2.897   2.897   2.897   2.897   2.897   2.897   2.897   2.897   2.897   2.897   2.897   2.897   2.897   2.897   2.897   2.897
    18.00    2.897   2.897   2.897   2.897   2.897   2.897   2.897   2.897   2.897   2.897   2.897   2.897   2.897   2.897   2.897   2.897   2.897   2.897   2.897   2.897   2.897   2.897   2.897   2.897   2.897   2.897   2.897   2.897   2.897   2.897   2.897   2.897   2.897   2.897   2.897   2.897   2.897   2.897   2.897   2.897   2.897   2.897   2.897   2.897   2.897   2.897   2.897   2.897   2.897   2.897   2.897
    15.00    2.897   2.897   2.897   2.897   2.897   2.897   2.897   2.897   2.897   2.897   2.897   2.897   2.897   2.897   2.897   2.897   2.897   2.897   2.897   2.897   2.897   2.897   2.897   2.897   2.897   2.897   2.897   2.897   2.897   2.897   2.897   2.897   2.897   2.897   2.897   2.897   2.897   2.897   2.897   2.897   2.897   2.897   2.897   2.897   2.897   2.897   2.897   2.897   2.897   2.897   2.897

   Height   Standard deviation at grid points for the w component:
   165.00    2.897   2.897   2.897   2.897   2.897   2.897   2.897   2.897   2.897   2.897   2.897   2.897   2.897   2.897   2.897   2.897   2.897   2.897   2.897   2.897   2.897   2.897   2.897   2.897   2.897   2.897   2.897   2.897   2.897   2.897   2.897   2.897   2.897   2.897   2.897   2.897   2.897   2.897   2.897   2.897   2.897   2.897   2.897   2.897   2.897   2.897   2.897   2.897   2.897   2.897   2.897
   162.00    2.897   2.897   2.897   2.897   2.897   2.897   2.897   2.897   2.897   2.897   2.897   2.897   2.897   2.897   2.897   2.897   2.897   2.897   2.897   2.897   2.897   2.897   2.897   2.897   2.897   2.897   2.897   2.897   2.897   2.897   2.897   2.897   2.897   2.897   2.897   2.897   2.897   2.897   2.897   2.897   2.897   2.897   2.897   2.897   2.897   2.897   2.897   2.897   2.897   2.897   2.897
   159.00    2.897   2.897   2.897   2.897   2.897   2.897   2.897   2.897   2.897   2.897   2.897   2.897   2.897   2.897   2.897   2.897   2.897   2.897   2.897   2.897   2.897   2.897   2.897   2.897   2.897   2.897   2.897   2.897   2.897   2.897   2.897   2.897   2.897   2.897   2.897   2.897   2.897   2.897   2.897   2.897   2.897   2.897   2.897   2.897   2.897   2.897   2.897   2.897   2.897   2.897   2.897
   156.00    2.897   2.897   2.897   2.897   2.897   2.897   2.897   2.897   2.897   2.897   2.897   2.897   2.897   2.897   2.897   2.897   2.897   2.897   2.897   2.897   2.897   2.897   2.897   2.897   2.897   2.897   2.897   2.897   2.897   2.897   2.897   2.897   2.897   2.897   2.897   2.897   2.897   2.897   2.897   2.897   2.897   2.897   2.897   2.897   2.897   2.897   2.897   2.897   2.897   2.897   2.897
   153.00    2.897   2.897   2.897   2.897   2.897   2.897   2.897   2.897   2.897   2.897   2.897   2.897   2.897   2.897   2.897   2.897   2.897   2.897   2.897   2.897   2.897   2.897   2.897   2.897   2.897   2.897   2.897   2.897   2.897   2.897   2.897   2.897   2.897   2.897   2.897   2.897   2.897   2.897   2.897   2.897   2.897   2.897   2.897   2.897   2.897   2.897   2.897   2.897   2.897   2.897   2.897
   150.00    2.897   2.897   2.897   2.897   2.897   2.897   2.897   2.897   2.897   2.897   2.897   2.897   2.897   2.897   2.897   2.897   2.897   2.897   2.897   2.897   2.897   2.897   2.897   2.897   2.897   2.897   2.897   2.897   2.897   2.897   2.897   2.897   2.897   2.897   2.897   2.897   2.897   2.897   2.897   2.897   2.897   2.897   2.897   2.897   2.897   2.897   2.897   2.897   2.897   2.897   2.897
   147.00    2.897   2.897   2.897   2.897   2.897   2.897   2.897   2.897   2.897   2.897   2.897   2.897   2.897   2.897   2.897   2.897   2.897   2.897   2.897   2.897   2.897   2.897   2.897   2.897   2.897   2.897   2.897   2.897   2.897   2.897   2.897   2.897   2.897   2.897   2.897   2.897   2.897   2.897   2.897   2.897   2.897   2.897   2.897   2.897   2.897   2.897   2.897   2.897   2.897   2.897   2.897
   144.00    2.897   2.897   2.897   2.897   2.897   2.897   2.897   2.897   2.897   2.897   2.897   2.897   2.897   2.897   2.897   2.897   2.897   2.897   2.897   2.897   2.897   2.897   2.897   2.897   2.897   2.897   2.897   2.897   2.897   2.897   2.897   2.897   2.897   2.897   2.897   2.897   2.897   2.897   2.897   2.897   2.897   2.897   2.897   2.897   2.897   2.897   2.897   2.897   2.897   2.897   2.897
   141.00    2.897   2.897   2.897   2.897   2.897   2.897   2.897   2.897   2.897   2.897   2.897   2.897   2.897   2.897   2.897   2.897   2.897   2.897   2.897   2.897   2.897   2.897   2.897   2.897   2.897   2.897   2.897   2.897   2.897   2.897   2.897   2.897   2.897   2.897   2.897   2.897   2.897   2.897   2.897   2.897   2.897   2.897   2.897   2.897   2.897   2.897   2.897   2.897   2.897   2.897   2.897
   138.00    2.897   2.897   2.897   2.897   2.897   2.897   2.897   2.897   2.897   2.897   2.897   2.897   2.897   2.897   2.897   2.897   2.897   2.897   2.897   2.897   2.897   2.897   2.897   2.897   2.897   2.897   2.897   2.897   2.897   2.897   2.897   2.897   2.897   2.897   2.897   2.897   2.897   2.897   2.897   2.897   2.897   2.897   2.897   2.897   2.897   2.897   2.897   2.897   2.897   2.897   2.897
   135.00    2.897   2.897   2.897   2.897   2.897   2.897   2.897   2.897   2.897   2.897   2.897   2.897   2.897   2.897   2.897   2.897   2.897   2.897   2.897   2.897   2.897   2.897   2.897   2.897   2.897   2.897   2.897   2.897   2.897   2.897   2.897   2.897   2.897   2.897   2.897   2.897   2.897   2.897   2.897   2.897   2.897   2.897   2.897   2.897   2.897   2.897   2.897   2.897   2.897   2.897   2.897
   132.00    2.897   2.897   2.897   2.897   2.897   2.897   2.897   2.897   2.897   2.897   2.897   2.897   2.897   2.897   2.897   2.897   2.897   2.897   2.897   2.897   2.897   2.897   2.897   2.897   2.897   2.897   2.897   2.897   2.897   2.897   2.897   2.897   2.897   2.897   2.897   2.897   2.897   2.897   2.897   2.897   2.897   2.897   2.897   2.897   2.897   2.897   2.897   2.897   2.897   2.897   2.897
   129.00    2.897   2.897   2.897   2.897   2.897   2.897   2.897   2.897   2.897   2.897   2.897   2.897   2.897   2.897   2.897   2.897   2.897   2.897   2.897   2.897   2.897   2.897   2.897   2.897   2.897   2.897   2.897   2.897   2.897   2.897   2.897   2.897   2.897   2.897   2.897   2.897   2.897   2.897   2.897   2.897   2.897   2.897   2.897   2.897   2.897   2.897   2.897   2.897   2.897   2.897   2.897
   126.00    2.897   2.897   2.897   2.897   2.897   2.897   2.897   2.897   2.897   2.897   2.897   2.897   2.897   2.897   2.897   2.897   2.897   2.897   2.897   2.897   2.897   2.897   2.897   2.897   2.897   2.897   2.897   2.897   2.897   2.897   2.897   2.897   2.897   2.897   2.897   2.897   2.897   2.897   2.897   2.897   2.897   2.897   2.897   2.897   2.897   2.897   2.897   2.897   2.897   2.897   2.897
   123.00    2.897   2.897   2.897   2.897   2.897   2.897   2.897   2.897   2.897   2.897   2.897   2.897   2.897   2.897   2.897   2.897   2.897   2.897   2.897   2.897   2.897   2.897   2.897   2.897   2.897   2.897   2.897   2.897   2.897   2.897   2.897   2.897   2.897   2.897   2.897   2.897   2.897   2.897   2.897   2.897   2.897   2.897   2.897   2.897   2.897   2.897   2.897   2.897   2.897   2.897   2.897
   120.00    2.897   2.897   2.897   2.897   2.897   2.897   2.897   2.897   2.897   2.897   2.897   2.897   2.897   2.897   2.897   2.897   2.897   2.897   2.897   2.897   2.897   2.897   2.897   2.897   2.897   2.897   2.897   2.897   2.897   2.897   2.897   2.897   2.897   2.897   2.897   2.897   2.897   2.897   2.897   2.897   2.897   2.897   2.897   2.897   2.897   2.897   2.897   2.897   2.897   2.897   2.897
   117.00    2.897   2.897   2.897   2.897   2.897   2.897   2.897   2.897   2.897   2.897   2.897   2.897   2.897   2.897   2.897   2.897   2.897   2.897   2.897   2.897   2.897   2.897   2.897   2.897   2.897   2.897   2.897   2.897   2.897   2.897   2.897   2.897   2.897   2.897   2.897   2.897   2.897   2.897   2.897   2.897   2.897   2.897   2.897   2.897   2.897   2.897   2.897   2.897   2.897   2.897   2.897
   114.00    2.897   2.897   2.897   2.897   2.897   2.897   2.897   2.897   2.897   2.897   2.897   2.897   2.897   2.897   2.897   2.897   2.897   2.897   2.897   2.897   2.897   2.897   2.897   2.897   2.897   2.897   2.897   2.897   2.897   2.897   2.897   2.897   2.897   2.897   2.897   2.897   2.897   2.897   2.897   2.897   2.897   2.897   2.897   2.897   2.897   2.897   2.897   2.897   2.897   2.897   2.897
   111.00    2.897   2.897   2.897   2.897   2.897   2.897   2.897   2.897   2.897   2.897   2.897   2.897   2.897   2.897   2.897   2.897   2.897   2.897   2.897   2.897   2.897   2.897   2.897   2.897   2.897   2.897   2.897   2.897   2.897   2.897   2.897   2.897   2.897   2.897   2.897   2.897   2.897   2.897   2.897   2.897   2.897   2.897   2.897   2.897   2.897   2.897   2.897   2.897   2.897   2.897   2.897
   108.00    2.897   2.897   2.897   2.897   2.897   2.897   2.897   2.897   2.897   2.897   2.897   2.897   2.897   2.897   2.897   2.897   2.897   2.897   2.897   2.897   2.897   2.897   2.897   2.897   2.897   2.897   2.897   2.897   2.897   2.897   2.897   2.897   2.897   2.897   2.897   2.897   2.897   2.897   2.897   2.897   2.897   2.897   2.897   2.897   2.897   2.897   2.897   2.897   2.897   2.897   2.897
   105.00    2.897   2.897   2.897   2.897   2.897   2.897   2.897   2.897   2.897   2.897   2.897   2.897   2.897   2.897   2.897   2.897   2.897   2.897   2.897   2.897   2.897   2.897   2.897   2.897   2.897   2.897   2.897   2.897   2.897   2.897   2.897   2.897   2.897   2.897   2.897   2.897   2.897   2.897   2.897   2.897   2.897   2.897   2.897   2.897   2.897   2.897   2.897   2.897   2.897   2.897   2.897
   102.00    2.897   2.897   2.897   2.897   2.897   2.897   2.897   2.897   2.897   2.897   2.897   2.897   2.897   2.897   2.897   2.897   2.897   2.897   2.897   2.897   2.897   2.897   2.897   2.897   2.897   2.897   2.897   2.897   2.897   2.897   2.897   2.897   2.897   2.897   2.897   2.897   2.897   2.897   2.897   2.897   2.897   2.897   2.897   2.897   2.897   2.897   2.897   2.897   2.897   2.897   2.897
    99.00    2.897   2.897   2.897   2.897   2.897   2.897   2.897   2.897   2.897   2.897   2.897   2.897   2.897   2.897   2.897   2.897   2.897   2.897   2.897   2.897   2.897   2.897   2.897   2.897   2.897   2.897   2.897   2.897   2.897   2.897   2.897   2.897   2.897   2.897   2.897   2.897   2.897   2.897   2.897   2.897   2.897   2.897   2.897   2.897   2.897   2.897   2.897   2.897   2.897   2.897   2.897
    96.00    2.897   2.897   2.897   2.897   2.897   2.897   2.897   2.897   2.897   2.897   2.897   2.897   2.897   2.897   2.897   2.897   2.897   2.897   2.897   2.897   2.897   2.897   2.897   2.897   2.897   2.897   2.897   2.897   2.897   2.897   2.897   2.897   2.897   2.897   2.897   2.897   2.897   2.897   2.897   2.897   2.897   2.897   2.897   2.897   2.897   2.897   2.897   2.897   2.897   2.897   2.897
    93.00    2.897   2.897   2.897   2.897   2.897   2.897   2.897   2.897   2.897   2.897   2.897   2.897   2.897   2.897   2.897   2.897   2.897   2.897   2.897   2.897   2.897   2.897   2.897   2.897   2.897   2.897   2.897   2.897   2.897   2.897   2.897   2.897   2.897   2.897   2.897   2.897   2.897   2.897   2.897   2.897   2.897   2.897   2.897   2.897   2.897   2.897   2.897   2.897   2.897   2.897   2.897
    90.00    2.897   2.897   2.897   2.897   2.897   2.897   2.897   2.897   2.897   2.897   2.897   2.897   2.897   2.897   2.897   2.897   2.897   2.897   2.897   2.897   2.897   2.897   2.897   2.897   2.897   2.897   2.897   2.897   2.897   2.897   2.897   2.897   2.897   2.897   2.897   2.897   2.897   2.897   2.897   2.897   2.897   2.897   2.897   2.897   2.897   2.897   2.897   2.897   2.897   2.897   2.897
    87.00    2.897   2.897   2.897   2.897   2.897   2.897   2.897   2.897   2.897   2.897   2.897   2.897   2.897   2.897   2.897   2.897   2.897   2.897   2.897   2.897   2.897   2.897   2.897   2.897   2.897   2.897   2.897   2.897   2.897   2.897   2.897   2.897   2.897   2.897   2.897   2.897   2.897   2.897   2.897   2.897   2.897   2.897   2.897   2.897   2.897   2.897   2.897   2.897   2.897   2.897   2.897
    84.00    2.897   2.897   2.897   2.897   2.897   2.897   2.897   2.897   2.897   2.897   2.897   2.897   2.897   2.897   2.897   2.897   2.897   2.897   2.897   2.897   2.897   2.897   2.897   2.897   2.897   2.897   2.897   2.897   2.897   2.897   2.897   2.897   2.897   2.897   2.897   2.897   2.897   2.897   2.897   2.897   2.897   2.897   2.897   2.897   2.897   2.897   2.897   2.897   2.897   2.897   2.897
    81.00    2.897   2.897   2.897   2.897   2.897   2.897   2.897   2.897   2.897   2.897   2.897   2.897   2.897   2.897   2.897   2.897   2.897   2.897   2.897   2.897   2.897   2.897   2.897   2.897   2.897   2.897   2.897   2.897   2.897   2.897   2.897   2.897   2.897   2.897   2.897   2.897   2.897   2.897   2.897   2.897   2.897   2.897   2.897   2.897   2.897   2.897   2.897   2.897   2.897   2.897   2.897
    78.00    2.897   2.897   2.897   2.897   2.897   2.897   2.897   2.897   2.897   2.897   2.897   2.897   2.897   2.897   2.897   2.897   2.897   2.897   2.897   2.897   2.897   2.897   2.897   2.897   2.897   2.897   2.897   2.897   2.897   2.897   2.897   2.897   2.897   2.897   2.897   2.897   2.897   2.897   2.897   2.897   2.897   2.897   2.897   2.897   2.897   2.897   2.897   2.897   2.897   2.897   2.897
    75.00    2.897   2.897   2.897   2.897   2.897   2.897   2.897   2.897   2.897   2.897   2.897   2.897   2.897   2.897   2.897   2.897   2.897   2.897   2.897   2.897   2.897   2.897   2.897   2.897   2.897   2.897   2.897   2.897   2.897   2.897   2.897   2.897   2.897   2.897   2.897   2.897   2.897   2.897   2.897   2.897   2.897   2.897   2.897   2.897   2.897   2.897   2.897   2.897   2.897   2.897   2.897
    72.00    2.897   2.897   2.897   2.897   2.897   2.897   2.897   2.897   2.897   2.897   2.897   2.897   2.897   2.897   2.897   2.897   2.897   2.897   2.897   2.897   2.897   2.897   2.897   2.897   2.897   2.897   2.897   2.897   2.897   2.897   2.897   2.897   2.897   2.897   2.897   2.897   2.897   2.897   2.897   2.897   2.897   2.897   2.897   2.897   2.897   2.897   2.897   2.897   2.897   2.897   2.897
    69.00    2.897   2.897   2.897   2.897   2.897   2.897   2.897   2.897   2.897   2.897   2.897   2.897   2.897   2.897   2.897   2.897   2.897   2.897   2.897   2.897   2.897   2.897   2.897   2.897   2.897   2.897   2.897   2.897   2.897   2.897   2.897   2.897   2.897   2.897   2.897   2.897   2.897   2.897   2.897   2.897   2.897   2.897   2.897   2.897   2.897   2.897   2.897   2.897   2.897   2.897   2.897
    66.00    2.897   2.897   2.897   2.897   2.897   2.897   2.897   2.897   2.897   2.897   2.897   2.897   2.897   2.897   2.897   2.897   2.897   2.897   2.897   2.897   2.897   2.897   2.897   2.897   2.897   2.897   2.897   2.897   2.897   2.897   2.897   2.897   2.897   2.897   2.897   2.897   2.897   2.897   2.897   2.897   2.897   2.897   2.897   2.897   2.897   2.897   2.897   2.897   2.897   2.897   2.897
    63.00    2.897   2.897   2.897   2.897   2.897   2.897   2.897   2.897   2.897   2.897   2.897   2.897   2.897   2.897   2.897   2.897   2.897   2.897   2.897   2.897   2.897   2.897   2.897   2.897   2.897   2.897   2.897   2.897   2.897   2.897   2.897   2.897   2.897   2.897   2.897   2.897   2.897   2.897   2.897   2.897   2.897   2.897   2.897   2.897   2.897   2.897   2.897   2.897   2.897   2.897   2.897
    60.00    2.897   2.897   2.897   2.897   2.897   2.897   2.897   2.897   2.897   2.897   2.897   2.897   2.897   2.897   2.897   2.897   2.897   2.897   2.897   2.897   2.897   2.897   2.897   2.897   2.897   2.897   2.897   2.897   2.897   2.897   2.897   2.897   2.897   2.897   2.897   2.897   2.897   2.897   2.897   2.897   2.897   2.897   2.897   2.897   2.897   2.897   2.897   2.897   2.897   2.897   2.897
    57.00    2.897   2.897   2.897   2.897   2.897   2.897   2.897   2.897   2.897   2.897   2.897   2.897   2.897   2.897   2.897   2.897   2.897   2.897   2.897   2.897   2.897   2.897   2.897   2.897   2.897   2.897   2.897   2.897   2.897   2.897   2.897   2.897   2.897   2.897   2.897   2.897   2.897   2.897   2.897   2.897   2.897   2.897   2.897   2.897   2.897   2.897   2.897   2.897   2.897   2.897   2.897
    54.00    2.897   2.897   2.897   2.897   2.897   2.897   2.897   2.897   2.897   2.897   2.897   2.897   2.897   2.897   2.897   2.897   2.897   2.897   2.897   2.897   2.897   2.897   2.897   2.897   2.897   2.897   2.897   2.897   2.897   2.897   2.897   2.897   2.897   2.897   2.897   2.897   2.897   2.897   2.897   2.897   2.897   2.897   2.897   2.897   2.897   2.897   2.897   2.897   2.897   2.897   2.897
    51.00    2.897   2.897   2.897   2.897   2.897   2.897   2.897   2.897   2.897   2.897   2.897   2.897   2.897   2.897   2.897   2.897   2.897   2.897   2.897   2.897   2.897   2.897   2.897   2.897   2.897   2.897   2.897   2.897   2.897   2.897   2.897   2.897   2.897   2.897   2.897   2.897   2.897   2.897   2.897   2.897   2.897   2.897   2.897   2.897   2.897   2.897   2.897   2.897   2.897   2.897   2.897
    48.00    2.897   2.897   2.897   2.897   2.897   2.897   2.897   2.897   2.897   2.897   2.897   2.897   2.897   2.897   2.897   2.897   2.897   2.897   2.897   2.897   2.897   2.897   2.897   2.897   2.897   2.897   2.897   2.897   2.897   2.897   2.897   2.897   2.897   2.897   2.897   2.897   2.897   2.897   2.897   2.897   2.897   2.897   2.897   2.897   2.897   2.897   2.897   2.897   2.897   2.897   2.897
    45.00    2.897   2.897   2.897   2.897   2.897   2.897   2.897   2.897   2.897   2.897   2.897   2.897   2.897   2.897   2.897   2.897   2.897   2.897   2.897   2.897   2.897   2.897   2.897   2.897   2.897   2.897   2.897   2.897   2.897   2.897   2.897   2.897   2.897   2.897   2.897   2.897   2.897   2.897   2.897   2.897   2.897   2.897   2.897   2.897   2.897   2.897   2.897   2.897   2.897   2.897   2.897
    42.00    2.897   2.897   2.897   2.897   2.897   2.897   2.897   2.897   2.897   2.897   2.897   2.897   2.897   2.897   2.897   2.897   2.897   2.897   2.897   2.897   2.897   2.897   2.897   2.897   2.897   2.897   2.897   2.897   2.897   2.897   2.897   2.897   2.897   2.897   2.897   2.897   2.897   2.897   2.897   2.897   2.897   2.897   2.897   2.897   2.897   2.897   2.897   2.897   2.897   2.897   2.897
    39.00    2.897   2.897   2.897   2.897   2.897   2.897   2.897   2.897   2.897   2.897   2.897   2.897   2.897   2.897   2.897   2.897   2.897   2.897   2.897   2.897   2.897   2.897   2.897   2.897   2.897   2.897   2.897   2.897   2.897   2.897   2.897   2.897   2.897   2.897   2.897   2.897   2.897   2.897   2.897   2.897   2.897   2.897   2.897   2.897   2.897   2.897   2.897   2.897   2.897   2.897   2.897
    36.00    2.897   2.897   2.897   2.897   2.897   2.897   2.897   2.897   2.897   2.897   2.897   2.897   2.897   2.897   2.897   2.897   2.897   2.897   2.897   2.897   2.897   2.897   2.897   2.897   2.897   2.897   2.897   2.897   2.897   2.897   2.897   2.897   2.897   2.897   2.897   2.897   2.897   2.897   2.897   2.897   2.897   2.897   2.897   2.897   2.897   2.897   2.897   2.897   2.897   2.897   2.897
    33.00    2.897   2.897   2.897   2.897   2.897   2.897   2.897   2.897   2.897   2.897   2.897   2.897   2.897   2.897   2.897   2.897   2.897   2.897   2.897   2.897   2.897   2.897   2.897   2.897   2.897   2.897   2.897   2.897   2.897   2.897   2.897   2.897   2.897   2.897   2.897   2.897   2.897   2.897   2.897   2.897   2.897   2.897   2.897   2.897   2.897   2.897   2.897   2.897   2.897   2.897   2.897
    30.00    2.897   2.897   2.897   2.897   2.897   2.897   2.897   2.897   2.897   2.897   2.897   2.897   2.897   2.897   2.897   2.897   2.897   2.897   2.897   2.897   2.897   2.897   2.897   2.897   2.897   2.897   2.897   2.897   2.897   2.897   2.897   2.897   2.897   2.897   2.897   2.897   2.897   2.897   2.897   2.897   2.897   2.897   2.897   2.897   2.897   2.897   2.897   2.897   2.897   2.897   2.897
    27.00    2.897   2.897   2.897   2.897   2.897   2.897   2.897   2.897   2.897   2.897   2.897   2.897   2.897   2.897   2.897   2.897   2.897   2.897   2.897   2.897   2.897   2.897   2.897   2.897   2.897   2.897   2.897   2.897   2.897   2.897   2.897   2.897   2.897   2.897   2.897   2.897   2.897   2.897   2.897   2.897   2.897   2.897   2.897   2.897   2.897   2.897   2.897   2.897   2.897   2.897   2.897
    24.00    2.897   2.897   2.897   2.897   2.897   2.897   2.897   2.897   2.897   2.897   2.897   2.897   2.897   2.897   2.897   2.897   2.897   2.897   2.897   2.897   2.897   2.897   2.897   2.897   2.897   2.897   2.897   2.897   2.897   2.897   2.897   2.897   2.897   2.897   2.897   2.897   2.897   2.897   2.897   2.897   2.897   2.897   2.897   2.897   2.897   2.897   2.897   2.897   2.897   2.897   2.897
    21.00    2.897   2.897   2.897   2.897   2.897   2.897   2.897   2.897   2.897   2.897   2.897   2.897   2.897   2.897   2.897   2.897   2.897   2.897   2.897   2.897   2.897   2.897   2.897   2.897   2.897   2.897   2.897   2.897   2.897   2.897   2.897   2.897   2.897   2.897   2.897   2.897   2.897   2.897   2.897   2.897   2.897   2.897   2.897   2.897   2.897   2.897   2.897   2.897   2.897   2.897   2.897
    18.00    2.897   2.897   2.897   2.897   2.897   2.897   2.897   2.897   2.897   2.897   2.897   2.897   2.897   2.897   2.897   2.897   2.897   2.897   2.897   2.897   2.897   2.897   2.897   2.897   2.897   2.897   2.897   2.897   2.897   2.897   2.897   2.897   2.897   2.897   2.897   2.897   2.897   2.897   2.897   2.897   2.897   2.897   2.897   2.897   2.897   2.897   2.897   2.897   2.897   2.897   2.897
    15.00    2.897   2.897   2.897   2.897   2.897   2.897   2.897   2.897   2.897   2.897   2.897   2.897   2.897   2.897   2.897   2.897   2.897   2.897   2.897   2.897   2.897   2.897   2.897   2.897   2.897   2.897   2.897   2.897   2.897   2.897   2.897   2.897   2.897   2.897   2.897   2.897   2.897   2.897   2.897   2.897   2.897   2.897   2.897   2.897   2.897   2.897   2.897   2.897   2.897   2.897   2.897

   Mean standard deviation across all grid points:
      u component:    2.805 m/s
      v component:    2.897 m/s
      w component:    2.897 m/s


U-component (X) statistics from the interpolated hub point:

   Mean =  17.0000 m/s
   TI   =  15.5950 %


Processing complete.  15404 CPU seconds used.
